File C:\Users\Ivan\Documents\gitdocs-2026\MAESTRIA 2DO TRIMESTRE\JULIAN DINAMICA ESTRUCTURAL\TAREA 4\prueba2.$2k was saved on m/d/yy at h:mm:ss
 
TABLE:  "ACTIVE DEGREES OF FREEDOM"
   UX=Yes   UY=No   UZ=Yes   RX=No   RY=Yes   RZ=No
 
TABLE:  "ANALYSIS OPTIONS"
   Solver=Advanced   SolverProc=Auto   Force32Bit=No   StiffCase=None   GeomMod=None   HingeOpt="In Elements"   NumAThreads=0   MaxFileSize=0   NumDThreads=0   NumRThreads=0   UseMMFiles="Program Determined"   AllowDiff=No
 
TABLE:  "AUTO COMBINATION OPTION DATA 01 - GENERAL"
   DesignType=Concrete   AutoGen=Yes
 
TABLE:  "AUTO WAVE 3 - WAVE CHARACTERISTICS - GENERAL"
   WaveChar=Default   WaveType="From Theory"   KinFactor=1   SWaterDepth=4500   WaveHeight=1800   WavePeriod=12   WaveTheory=Linear
 
TABLE:  "CASE - MODAL 1 - GENERAL"
   Case=MODAL   ModeType=Eigen   MaxNumModes=12   MinNumModes=1   EigenShift=0   EigenCutoff=0   EigenTol=1E-09   AutoShift=Yes
 
TABLE:  "CASE - STATIC 1 - LOAD ASSIGNMENTS"
   Case=Peso   LoadType="Load pattern"   LoadName=Peso   LoadSF=1
 
TABLE:  "CONNECTIVITY - FRAME"
   Frame=5   JointI=4   JointJ=6   IsCurved=No   GUID=435ce0a3-c76a-401c-b1bd-8f7449f9b71e
   Frame=6   JointI=6   JointJ=5   IsCurved=No   GUID=0bf9fde5-e174-446f-80a3-5d95ec61fefa
 
TABLE:  "COORDINATE SYSTEMS"
   Name=GLOBAL   Type=Cartesian   X=0   Y=0   Z=0   AboutZ=0   AboutY=0   AboutX=0
 
TABLE:  "DATABASE DOCUMENTATION"
 
TABLE:  "DATABASE FORMAT TYPES"
   UnitsCurr=Yes   OverrideE=No
 
TABLE:  "FRAME AUTO MESH ASSIGNMENTS"
   Frame=5   AutoMesh=Yes   AtJoints=Yes   AtFrames=No   NumSegments=0   MaxLength=0   MaxDegrees=0
   Frame=6   AutoMesh=Yes   AtJoints=Yes   AtFrames=No   NumSegments=0   MaxLength=0   MaxDegrees=0
 
TABLE:  "FRAME DESIGN PROCEDURES"
   Frame=5   DesignProc="From Material"
   Frame=6   DesignProc="From Material"
 
TABLE:  "FRAME LOAD TRANSFER OPTIONS"
   Frame=5   Transfer=Yes
   Frame=6   Transfer=Yes
 
TABLE:  "FRAME OUTPUT STATION ASSIGNMENTS"
   Frame=5   StationType=MaxStaSpcg   MaxStaSpcg=0,5   AddAtElmInt=Yes   AddAtPtLoad=Yes
   Frame=6   StationType=MaxStaSpcg   MaxStaSpcg=0,5   AddAtElmInt=Yes   AddAtPtLoad=Yes
 
TABLE:  "FRAME SECTION ASSIGNMENTS"
   Frame=5   AutoSelect=N.A.   AnalSect=v50x25   MatProp=Default
   Frame=6   AutoSelect=N.A.   AnalSect=v50x25   MatProp=Default
 
TABLE:  "FRAME SECTION PROPERTIES 01 - GENERAL"
   SectionName=v50x25   Material=4000Psi   Shape=Rectangular   t3=0,005   t2=0,0025   Area=1,25E-05   TorsConst=1,788126627604167E-11   I33=2,604166666666667E-11   I22=6,510416666666668E-12   I23=0   AS2=1,0416666666666666E-05 _
        AS3=1,0416666666666666E-05   S33Top=1,0416666666666667E-08   S33Bot=1,0416666666666667E-08   S22Left=5,208333333333334E-09   S22Right=5,208333333333334E-09   Z33=1,5625000000000003E-08   Z22=7,812500000000001E-09 _
        R33=0,0014433756729740645   R22=0,0007216878364870322   CGOffset3=0   CGOffset2=0   EccV2=0   EccV3=0   Cw=0   Color=Gray8Dark   FromFile=No   AMod=1   A2Mod=1   A3Mod=1   JMod=1   I2Mod=1   I3Mod=1   MMod=1   WMod=1 _
        GUID=bee2858b-ad59-43b4-8d29-e3d0e67c7aee   Notes="Added 11/7/2026 15:37:42"
 
TABLE:  "FRAME SECTION PROPERTIES 03 - CONCRETE BEAM"
   SectionName=v50x25   RebarMatL=A615Gr60   RebarMatC=A615Gr60   TopCover=0,05999999999999999   BotCover=0,05999999999999999   TopLeftArea=0   TopRghtArea=0   BotLeftArea=0   BotRghtArea=0
 
TABLE:  "FRAME SECTION PROPERTIES 13 - TIME DEPENDENT"
   SectionName=v50x25   TypeSize=Auto   AutoSFSize=1
 
TABLE:  "FUNCTION - PLOT FUNCTIONS"
   PlotFunc="Input Energy"   Type=Energy   Component=Input   Mode=All
 
TABLE:  "FUNCTION - POWER SPECTRAL DENSITY - USER"
   Name=UNIFPSD   Frequency=0   Value=1
   Name=UNIFPSD   Frequency=1   Value=1
 
TABLE:  "FUNCTION - RESPONSE SPECTRUM - USER"
   Name=UNIFRS   Period=0   Accel=1   FuncDamp=0,05
   Name=UNIFRS   Period=1   Accel=1
 
TABLE:  "FUNCTION - STEADY STATE - USER"
   Name=UNIFSS   Frequency=0   Value=1
   Name=UNIFSS   Frequency=1   Value=1
 
TABLE:  "FUNCTION - TIME HISTORY - USER"
   Name=RAMPTH   Time=0   Value=0
   Name=RAMPTH   Time=1   Value=1
   Name=RAMPTH   Time=4   Value=1
   Name=UNIFTH   Time=0   Value=1
   Name=UNIFTH   Time=1   Value=1
 
TABLE:  "GRID LINES"
   CoordSys=GLOBAL   AxisDir=X   GridID=A   XRYZCoord=0   LineType=Primary   LineColor=Gray8Dark   Visible=Yes   BubbleLoc=End   AllVisible=Yes   BubbleSize=1,25
   CoordSys=GLOBAL   AxisDir=X   GridID=B   XRYZCoord=6   LineType=Primary   LineColor=Gray8Dark   Visible=Yes   BubbleLoc=End
   CoordSys=GLOBAL   AxisDir=Y   GridID=1   XRYZCoord=0   LineType=Primary   LineColor=Gray8Dark   Visible=Yes   BubbleLoc=Start
   CoordSys=GLOBAL   AxisDir=Z   GridID=Z1   XRYZCoord=0   LineType=Primary   LineColor=Gray8Dark   Visible=Yes   BubbleLoc=End
 
TABLE:  "GROUPS 1 - DEFINITIONS"
   GroupName=ALL   Selection=Yes   SectionCut=Yes   Steel=Yes   Concrete=Yes   Aluminum=Yes   ColdFormed=Yes   Stage=Yes   Bridge=Yes   AutoSeismic=No   AutoWind=No   SelDesSteel=No   SelDesAlum=No   SelDesCold=No   MassWeight=Yes   Color=Red
 
TABLE:  "JOINT COORDINATES"
   Joint=4   CoordSys=GLOBAL   CoordType=Cartesian   XorR=0   Y=0   Z=0   SpecialJt=No   GUID=05a4b89c-10b7-448d-ab2a-8c7f8caa60a3
   Joint=5   CoordSys=GLOBAL   CoordType=Cartesian   XorR=6   Y=0   Z=0   SpecialJt=No   GUID=65eac5da-6fa6-4287-b916-b8268cac5834
   Joint=6   CoordSys=GLOBAL   CoordType=Cartesian   XorR=3   Y=0   Z=0   SpecialJt=No   GUID=08941577-92dc-48e4-b98b-4166d0b16eee
 
TABLE:  "JOINT LOADS - FORCE"
   Joint=6   LoadPat=Peso   CoordSys=GLOBAL   F1=0   F2=0   F3=-4000   M1=0   M2=0   M3=0   GUID=a2d95109-2df1-4a06-b011-62ad645a7ea1
 
TABLE:  "JOINT PATTERN DEFINITIONS"
   Pattern=Default
 
TABLE:  "JOINT RESTRAINT ASSIGNMENTS"
   Joint=4   U1=Yes   U2=Yes   U3=Yes   R1=No   R2=No   R3=No
   Joint=5   U1=Yes   U2=Yes   U3=Yes   R1=No   R2=No   R3=No
 
TABLE:  "LOAD CASE DEFINITIONS"
   Case=DEAD   Type=LinStatic   InitialCond=Zero   DesTypeOpt="Prog Det"   DesignType=Other   DesActOpt="Prog Det"   DesignAct=Other   AutoType=None   RunCase=No   GUID=6eb94850-2eae-4238-b399-84a408564bb2
   Case=MODAL   Type=LinModal   InitialCond=Zero   DesTypeOpt="Prog Det"   DesignType=Other   DesActOpt="Prog Det"   DesignAct=Other   AutoType=None   RunCase=Yes   GUID=e11e99ea-55e5-4a86-8ee5-db5e40bce0b6
   Case=Peso   Type=LinStatic   InitialCond=Zero   DesTypeOpt="Prog Det"   DesignType=Other   DesActOpt="Prog Det"   DesignAct=Other   AutoType=None   RunCase=Yes   GUID=7e5840af-29fd-40a2-b134-9832c885acf3
 
TABLE:  "LOAD PATTERN DEFINITIONS"
   LoadPat=Peso   DesignType=Other   SelfWtMult=0   GUID=2436c4ad-42fa-4f89-828a-dd1364a0678a   Notes="Added 11/7/2026 15:41:38"
 
TABLE:  "MASS SOURCE"
   MassSource=MSSSRC1   Elements=Yes   Masses=Yes   Loads=Yes   IsDefault=Yes   LoadPat=Peso   Multiplier=1
 
TABLE:  "MATERIAL PROPERTIES 01 - GENERAL"
   Material=4000Psi   Type=Concrete   Grade="f'c 4000 psi"   SymType=Isotropic   TempDepend=No   Color=Red   GUID=0febe551-8a8a-4fba-926e-ee9896fa6b3c   Notes="Customary f'c 4000 psi 11/7/2026 15:26:55"
   Material=A615Gr60   Type=Rebar   Grade="Grade 60"   SymType=Uniaxial   TempDepend=No   Color=Yellow   GUID=1cf46748-3f4d-49c6-b557-8c054d39d502   Notes="ASTM A615 Grade 60 11/7/2026 15:37:42"
   Material=A992Fy50   Type=Steel   Grade="Grade 50"   SymType=Isotropic   TempDepend=No   Color=Cyan   GUID=57f2d4bc-9671-420f-ac55-bb90302a1b2a   Notes="ASTM A992 Grade 50 11/7/2026 15:26:55"
 
TABLE:  "MATERIAL PROPERTIES 02 - BASIC MECHANICAL PROPERTIES"
   Material=4000Psi   UnitWeight=2402,769665133043   UnitMass=245,01430729992447   E1=258112729472247,56   G12=107546970613436,48   U12=0,2   A1=9,899999527931235E-06
   Material=A615Gr60   UnitWeight=7849,047572366075   UnitMass=800,3800706866098   E1=20389019158,03832   A1=1,1699999442100551E-05
   Material=A992Fy50   UnitWeight=7849,047572366075   UnitMass=800,3800706866098   E1=20389019158,03832   G12=7841930445,399353   U12=0,3   A1=1,1699999442100551E-05
 
TABLE:  "MATERIAL PROPERTIES 03A - STEEL DATA"
   Material=A992Fy50   Fy=35153481,30696262   Fu=45699525,6990514   EffFy=38668829,437658876   EffFu=50269478,26895654   SSCurveOpt=Simple   SSHysType=Kinematic   SHard=0,015   SMax=0,11   SRup=0,17   FinalSlope=-0,1   CoupModType="Von Mises"
 
TABLE:  "MATERIAL PROPERTIES 03B - CONCRETE DATA"
   Material=4000Psi   Fc=2812278,5045570093   eFc=2812278,5045570093   LtWtConc=No   SSCurveOpt=Mander   SSHysType=Takeda   SFc=0,00221914   SCap=0,005   FinalSlope=-0,1   FAngle=0   DAngle=0   CoupModType="Modified Darwin-Pecknold"
 
TABLE:  "MATERIAL PROPERTIES 03E - REBAR DATA"
   Material=A615Gr60   Fy=42184177,56835514   Fu=63276266,35253271   EffFy=46402595,325190656   EffFu=69603892,98778598   SSCurveOpt=Simple   SSHysType=Kinematic   SHard=0,01   SCap=0,09   FinalSlope=-0,1   UseCTDef=No   CoupModType="Von Mises"
 
TABLE:  "MATERIAL PROPERTIES 03J - COUPLED NONLINEAR VON MISES DATA"
   Material=A615Gr60   YieldStress=46402595,325190656   LinIsoHard=No   LinKinHard=No   NLIsoSaHard=No
   Material=A992Fy50   YieldStress=38668829,437658876   LinIsoHard=No   LinKinHard=No   NLIsoSaHard=No
 
TABLE:  "MATERIAL PROPERTIES 06 - DAMPING PARAMETERS"
   Material=4000Psi   ModalRatio=0   VisMass=0   VisStiff=0   HysMass=0   HysStiff=0
   Material=A615Gr60   ModalRatio=0   VisMass=0   VisStiff=0   HysMass=0   HysStiff=0
   Material=A992Fy50   ModalRatio=0   VisMass=0   VisStiff=0   HysMass=0   HysStiff=0
 
TABLE:  "MATERIAL PROPERTIES 09 - ACCEPTANCE CRITERIA"
   Material=4000Psi   IOTens=0,01   LSTens=0,02   CPTens=0,05   IOComp=-0,003   LSComp=-0,006   CPComp=-0,015   IgnoreTens=Yes
   Material=A615Gr60   IOTens=0,01   LSTens=0,02   CPTens=0,05   IOComp=-0,005   LSComp=-0,01   CPComp=-0,02
   Material=A992Fy50   IOTens=0,01   LSTens=0,02   CPTens=0,05   IOComp=-0,005   LSComp=-0,01   CPComp=-0,02
 
TABLE:  "OPTIONS - COLORS - DISPLAY"
   DeviceType=Screen   Points=Blue   LinesFrame=Blue   LinesFrmDL=Blue   LinesCable=Green   LinesTendon=Green   SpringLinks=Green   Restraints=Green   Releases=Green   Axes=Cyan   Text=Black   ShadowLines=Gray8Dark   GuideLines=Gray8Dark _
        Highlight=Red   Selection=10504778   AreaFillBot=Red   AreaFillTop=16744703   AreaFillSd=Red   AreaEdge=DarkRed   SolidF1=Red   SolidF2=Blue   SolidF3=Green   SolidF4=Yellow   SolidF5=White   SolidF6=Cyan   SolidEdge=DarkRed _
        Floor=Gray4   Background=White   BGLowLeft=White   BGLowRight=White   BGUpRight=White   Darkness=0,5
   DeviceType=Printer   Points=Gray8Dark   LinesFrame=Black   LinesFrmDL=Gray4   LinesCable=Black   LinesTendon=Black   SpringLinks=Gray8Dark   Restraints=Gray8Dark   Releases=Gray4   Axes=Black   Text=Black   ShadowLines=Gray4 _
        GuideLines=Gray4   Highlight=Black   Selection=Black   AreaFillBot=Gray4   AreaFillTop=Gray8Dark   AreaFillSd=Gray4   AreaEdge=Black   SolidF1=Gray1Light   SolidF2=Gray2   SolidF3=Gray3   SolidF4=Gray4   SolidF5=Gray5 _
        SolidF6=Gray6   SolidEdge=Black   Floor=Gray4   Background=White   BGLowLeft=White   BGLowRight=White   BGUpRight=White   Darkness=0,5
   DeviceType="Color Printer"   Points=Blue   LinesFrame=Blue   LinesFrmDL=Blue   LinesCable=Green   LinesTendon=Green   SpringLinks=Green   Restraints=Green   Releases=Green   Axes=Cyan   Text=Black   ShadowLines=Gray8Dark _
        GuideLines=Gray8Dark   Highlight=Red   Selection=10504778   AreaFillBot=Red   AreaFillTop=16744703   AreaFillSd=Red   AreaEdge=DarkRed   SolidF1=Red   SolidF2=Blue   SolidF3=Green   SolidF4=Yellow   SolidF5=White   SolidF6=Cyan _
        SolidEdge=DarkRed   Floor=Gray4   Background=White   BGLowLeft=White   BGLowRight=White   BGUpRight=White   Darkness=0,5
 
TABLE:  "OPTIONS - COLORS - OUTPUT"
   DeviceType=Screen   Contour1=13107400   Contour2=6553828   Contour3=Red   Contour4=16639   Contour5=Orange   Contour6=43775   Contour7=54527   Contour8=Yellow   Contour9=65408   Contour10=Green   Contour11=8453888   Contour12=Cyan _
        Contour13=16755200   Contour14=16733440   Contour15=Blue   Transpare=0   Ratio1=Cyan   Ratio2=Green   Ratio3=Yellow   Ratio4=Orange   Ratio5=Red   RatioNotD=Gray4   RatioNotC=Red   RatioVal1=0,5   RatioVal2=0,7   RatioVal3=0,9 _
        RatioVal4=1   DFillPos=Blue   DFillNeg=Red   DFillRPos=9498256   DFillRNeg=9498256
   DeviceType=Printer   Contour1=Black   Contour2=3158064   Contour3=4210752   Contour4=5263440   Contour5=6316128   Contour6=7368816   Contour7=Gray8Dark   Contour8=Gray7   Contour9=Gray6   Contour10=Gray5   Contour11=Gray4 _
        Contour12=Gray3   Contour13=Gray2   Contour14=Gray1Light   Contour15=White   Transpare=0   Ratio1=Gray2   Ratio2=Gray4   Ratio3=Gray8Dark   Ratio4=4210752   Ratio5=Black   RatioNotD=Gray4   RatioNotC=Black   RatioVal1=0,5 _
        RatioVal2=0,7   RatioVal3=0,9   RatioVal4=1   DFillPos=Gray8Dark   DFillNeg=Gray8Dark   DFillRPos=4210752   DFillRNeg=4210752
   DeviceType="Color Printer"   Contour1=13107400   Contour2=6553828   Contour3=Red   Contour4=16639   Contour5=Orange   Contour6=43775   Contour7=54527   Contour8=Yellow   Contour9=65408   Contour10=Green   Contour11=8453888 _
        Contour12=Cyan   Contour13=16755200   Contour14=16733440   Contour15=Blue   Transpare=0   Ratio1=Cyan   Ratio2=Green   Ratio3=Yellow   Ratio4=Orange   Ratio5=Red   RatioNotD=Gray4   RatioNotC=Red   RatioVal1=0,5   RatioVal2=0,7 _
        RatioVal3=0,9   RatioVal4=1   DFillPos=Blue   DFillNeg=Red   DFillRPos=9498256   DFillRNeg=9498256
 
TABLE:  "OVERWRITES - CONCRETE DESIGN - ACI 318-19"
   Frame=5   DesignSect="Program Determined"   FrameType="Program Determined"   RLLF=0   XLMajor=0   XLMinor=0   CTorsion="Program Determined"   TanTheta=0   TorsCover=0
   Frame=6   DesignSect="Program Determined"   FrameType="Program Determined"   RLLF=0   XLMajor=0   XLMinor=0   CTorsion="Program Determined"   TanTheta=0   TorsCover=0
 
TABLE:  "PREFERENCES - ALUMINUM DESIGN - AA 2015"
   THDesign=Envelopes   SRatioLimit=1   Provision=LRFD   LatFact=1,3333333333333333   UseLatFact=No   Bridge=No   AMethod="Direct Analysis"   SOMethod="General 2nd Order"   SRMethod="Tau-b Fixed"   PhiTy=0,9   PhiTr=0,75   PhiC=0,9 _
        PhiBo=0,9   PhiBr=0,75   PhiVo=0,9   PhiVr=0,75
 
TABLE:  "PREFERENCES - COLD FORMED DESIGN - AISI-16"
   THDesign=Envelopes   FrameType="Braced Frame"   SRatioLimit=1   SOMethod="General 2nd Order"   Provision=LRFD   LatFact=1,3333333333333333   UseLatFact=No   PhiTy=0,9   PhiTr=0,75   PhiC=0,85   PhiB=0,9   PhiBPipe=0,95   PhiV=0,95
 
TABLE:  "PREFERENCES - CONCRETE DESIGN - ACI 318-19"
   THDesign=Envelopes   NumCurves=24   NumPoints=11   MinEccen=Yes   BCCDesign=Yes   IgnoreBPu=Yes   CTorsion=Yes   PatLLF=0,75   UFLimit=0,95   SeisCat=D   Rho=1   Sds=0,5   PhiT=0,9   PhiCTied=0,65   PhiCSpiral=0,75   PhiV=0,75 _
        PhiVSeismic=0,6   PhiVJoint=0,85   TanTheta=1
 
TABLE:  "PREFERENCES - CONCRETE SHELL DESIGN - EUROCODE 2-2004"
   Country="CEN Default"   GammaS=1,15   GammaC=1,5   AlphaCC=1   AlphaCT=1   CrackCond="Program Determined"   ShrDesMet="Method 1"   CotTheta=1   AddTenForce=Yes
 
TABLE:  "PREFERENCES - DIMENSIONAL"
   MergeTol=0,001   FineGrid=0,25   Nudge=0,25   SelectTol=3   SnapTol=12   SLineThick=2   PLineThick=4   MaxFont=12   MinFont=6   AutoZoom=10   ShrinkFact=70   TextFileLen=240
 
TABLE:  "PREFERENCES - STEEL DESIGN - AISC 360-16"
   THDesign=Envelopes   FrameType=SMF   PatLLF=0,75   SRatioLimit=0,95   MaxIter=1   SDC=D   SeisCode=No   SeisLoad=No   ImpFactor=1   SystemRho=1   SystemSds=0,5   SystemR=8   SystemCd=5,5   Omega0=3   Provision=LRFD _
        AMethod="Direct Analysis"   SOMethod="General 2nd Order"   SRMethod="Tau-b Fixed"   NLCoeff=0,002   PhiB=0,9   PhiC=0,9   PhiTY=0,9   PhiTF=0,75   PhiV=0,9   PhiVRolledI=1   PhiVT=0,9   PlugWeld=Yes   HSSWelding=ERW   HSSReduceT=No _
        CheckDefl=No   DLRat=120   SDLAndLLRat=120   LLRat=360   TotalRat=240   NetRat=240
 
TABLE:  "PROGRAM CONTROL"
   ProgramName=SAP2000   Version=26.3.0   CurrUnits="Kgf, m, C"   SteelCode="AISC 360-16"   ConcCode="ACI 318-19"   AlumCode="AA 2015"   ColdCode=AISI-16   ConcSCode="Eurocode 2-2004"   RegenHinge=Yes
 
TABLE:  "PROJECT INFORMATION"
   Item="Company Name"
   Item="Client Name"
   Item="Project Name"
   Item="Project Number"
   Item="Model Name"
   Item="Model Description"
   Item="Revision Number"
   Item="Frame Type"
   Item=Engineer
   Item=Checker
   Item=Supervisor
   Item="Issue Code"
   Item="Design Code"
 
TABLE:  "REBAR SIZES"
   RebarID=#2   Area=3,2258E-05   Diameter=0,00635
   RebarID=#3   Area=7,096759961545467E-05   Diameter=0,009524999999999999
   RebarID=#4   Area=0,00012903200192272663   Diameter=0,0127
   RebarID=#5   Area=0,0001999996015381813   Diameter=0,015875
   RebarID=#6   Area=0,0002838703984618187   Diameter=0,019049999999999997
   RebarID=#7   Area=0,00038709601538181303   Diameter=0,022224999999999998
   RebarID=#8   Area=0,0005096764138436317   Diameter=0,0254
   RebarID=#9   Area=0,00064516   Diameter=0,02865120053291321
   RebarID=#10   Area=0,0008193531876945496   Diameter=0,032257999515533445
   RebarID=#11   Area=0,0010064495630836487   Diameter=0,03581399915218353
   RebarID=#14   Area=0,0014516099999999999   Diameter=0,04300219895839691
   RebarID=#18   Area=0,00258064   Diameter=0,057327799224853516
   RebarID=10M   Area=0,00010000000265538693   Diameter=0,011300000667572021
   RebarID=15M   Area=0,00020000000531077386   Diameter=0,015999999940395356
   RebarID=20M   Area=0,00030000001757979393   Diameter=0,01949999978542328
   RebarID=25M   Area=0,0005000000228905678   Diameter=0,02520000160932541
   RebarID=30M   Area=0,0007000000089740753   Diameter=0,029900000882148742
   RebarID=35M   Area=0,0010000000457811356   Diameter=0,03570000114440918
   RebarID=45M   Area=0,0015000001071262359   Diameter=0,04370000035762787
   RebarID=55M   Area=0,0025000000759983062   Diameter=0,05640000338554382
   RebarID=6d   Area=2,8300000414997338E-05   Diameter=0,006000000166893005
   RebarID=8d   Area=5,0299999557137487E-05   Diameter=0,007999999970197678
   RebarID=10d   Area=7,850000136345625E-05   Diameter=0,00999999977350235
   RebarID=12d   Area=0,00011300000924944878   Diameter=0,01200000033378601
   RebarID=14d   Area=0,00015400001081883907   Diameter=0,014000000894069671
   RebarID=16d   Area=0,00020100001543164252   Diameter=0,015999999940395356
   RebarID=20d   Area=0,000314000005453825   Diameter=0,0199999995470047
   RebarID=25d   Area=0,0004910000087118149   Diameter=0,025000000190734863
   RebarID=26d   Area=0,000531000029001236   Diameter=0,025999999713897704
   RebarID=28d   Area=0,0006160000432753563   Diameter=0,028000001788139342
   RebarID=N12   Area=0,00011300000924944878   Diameter=0,01200000033378601
   RebarID=N16   Area=0,00020100001543164252   Diameter=0,015999999940395356
   RebarID=N20   Area=0,000314000005453825   Diameter=0,0199999995470047
   RebarID=N24   Area=0,0004520000369977951   Diameter=0,02400000066757202
   RebarID=N28   Area=0,0006160000432753563   Diameter=0,028000001788139342
   RebarID=N32   Area=0,0008040000617265701   Diameter=0,03199999988079071
   RebarID=N36   Area=0,0010200000174713135   Diameter=0,03600000100135803
 
END TABLE DATA
